
     RDKit          3D

 81 86  0  0  0  0  0  0  0  0999 V2000
  -34.7280   -7.0400    0.8390 C   0  0  0  0  0  0  0  0  0  0  0  0
  -35.4370   -6.6890    1.9940 C   0  0  0  0  0  0  0  0  0  0  0  0
  -36.7530   -7.1370    2.1720 C   0  0  0  0  0  0  0  0  0  0  0  0
  -37.3410   -7.9200    1.1640 C   0  0  0  0  0  0  0  0  0  0  0  0
  -36.6450   -8.2430    0.0160 C   0  0  0  0  0  0  0  0  0  0  0  0
  -35.3540   -7.7610   -0.1710 C   0  0  0  0  0  0  0  0  0  0  0  0
  -34.6170   -8.1650   -1.3930 C   0  0  0  0  0  0  0  0  0  0  0  0
  -34.7470   -9.4650   -1.8520 C   0  0  0  0  0  0  0  0  0  0  0  0
  -34.0360   -9.8950   -2.9730 C   0  0  0  0  0  0  0  0  0  0  0  0
  -33.1960   -9.0380   -3.6710 C   0  0  0  0  0  0  0  0  0  0  0  0
  -33.0930   -7.7440   -3.1530 N   0  0  0  0  0  0  0  0  0  0  0  0
  -33.8070   -7.3140   -2.0510 C   0  0  0  0  0  0  0  0  0  0  0  0
  -34.2080  -11.2090   -3.3830 N   0  0  0  0  0  0  0  0  0  0  0  0
  -35.1480  -12.1440   -2.7730 C   0  0  1  0  0  0  0  0  0  0  0  0
  -36.5750  -11.8480   -3.1750 C   0  0  0  0  0  0  0  0  0  0  0  0
  -37.5180  -12.8470   -2.5370 C   0  0  0  0  0  0  0  0  0  0  0  0
  -37.1510  -14.1980   -2.9680 N   0  0  0  0  0  0  0  0  0  0  0  0
  -35.8070  -14.5220   -2.4900 C   0  0  0  0  0  0  0  0  0  0  0  0
  -34.7840  -13.5790   -3.0880 C   0  0  0  0  0  0  0  0  0  0  0  0
  -32.2110   -6.7940   -3.8300 C   0  0  0  0  0  0  0  0  0  0  0  0
  -32.5490   -9.3530   -4.6650 O   0  0  0  0  0  0  0  0  0  0  0  0
  -37.7120   -7.0270    3.2190 C   0  0  0  0  0  0  0  0  0  0  0  0
  -38.8320   -7.6650    2.7940 C   0  0  0  0  0  0  0  0  0  0  0  0
  -38.6220   -8.2400    1.5630 N   0  0  0  0  0  0  0  0  0  0  0  0
  -34.8160   -5.9430    3.0100 N   0  0  0  0  0  0  0  0  0  0  0  0
  -33.2080   -5.9370    3.3660 S   0  0  2  0  0  6  0  0  0  0  0  0
  -32.4950   -4.6280    2.2950 C   0  0  0  0  0  0  0  0  0  0  0  0
  -33.1830   -3.2770    2.5000 C   0  0  0  0  0  0  0  0  0  0  0  0
  -32.5490   -7.1600    3.0200 O   0  0  0  0  0  0  0  0  0  0  0  0
  -33.1860   -5.4860    4.7120 O   0  0  0  0  0  0  0  0  0  0  0  0
  -39.5740   -9.0700    0.8110 C   0  0  1  0  0  0  0  0  0  0  0  0
  -39.0360  -10.5100    0.6540 C   0  0  0  0  0  0  0  0  0  0  0  0
  -40.9020   -9.1480    1.5680 C   0  0  0  0  0  0  0  0  0  0  0  0
  -39.8450   -8.4880   -0.5740 C   0  0  0  0  0  0  0  0  0  0  0  0
  -41.9190   -8.4870    1.0260 N   0  0  0  0  0  0  0  0  0  0  0  0
  -43.1000   -8.5230    1.6750 C   0  0  0  0  0  0  0  0  0  0  0  0
  -43.2990   -9.1840    2.8740 C   0  0  0  0  0  0  0  0  0  0  0  0
  -42.2340   -9.8560    3.4270 C   0  0  0  0  0  0  0  0  0  0  0  0
  -41.0190   -9.8520    2.7650 C   0  0  0  0  0  0  0  0  0  0  0  0
  -40.1060   -9.2960   -1.6620 C   0  0  0  0  0  0  0  0  0  0  0  0
  -40.3450   -8.7040   -2.8810 C   0  0  0  0  0  0  0  0  0  0  0  0
  -40.2730   -7.3320   -2.9930 C   0  0  0  0  0  0  0  0  0  0  0  0
  -39.9950   -6.5960   -1.8650 C   0  0  0  0  0  0  0  0  0  0  0  0
  -39.7810   -7.1550   -0.6640 N   0  0  0  0  0  0  0  0  0  0  0  0
  -33.6739   -6.7447    0.7307 H   0  0  0  0  0  0  0  0  0  0  0  0
  -37.1111   -8.8807   -0.7496 H   0  0  0  0  0  0  0  0  0  0  0  0
  -35.4160  -10.1641   -1.3288 H   0  0  0  0  0  0  0  0  0  0  0  0
  -33.7134   -6.2724   -1.7099 H   0  0  0  0  0  0  0  0  0  0  0  0
  -33.6349  -11.5468   -4.1693 H   0  0  0  0  0  0  0  0  0  0  0  0
  -35.0756  -12.0077   -1.6839 H   0  0  0  0  0  0  0  0  0  0  0  0
  -36.8425  -10.8337   -2.8439 H   0  0  0  0  0  0  0  0  0  0  0  0
  -36.6616  -11.9219   -4.2691 H   0  0  0  0  0  0  0  0  0  0  0  0
  -37.4425  -12.7768   -1.4418 H   0  0  0  0  0  0  0  0  0  0  0  0
  -38.5514  -12.6286   -2.8444 H   0  0  0  0  0  0  0  0  0  0  0  0
  -37.8240  -14.8751   -2.5813 H   0  0  0  0  0  0  0  0  0  0  0  0
  -35.7825  -14.4332   -1.3939 H   0  0  0  0  0  0  0  0  0  0  0  0
  -35.5614  -15.5498   -2.7954 H   0  0  0  0  0  0  0  0  0  0  0  0
  -33.7931  -13.8033   -2.6664 H   0  0  0  0  0  0  0  0  0  0  0  0
  -34.7672  -13.7134   -4.1796 H   0  0  0  0  0  0  0  0  0  0  0  0
  -31.6632   -6.2040   -3.0805 H   0  0  0  0  0  0  0  0  0  0  0  0
  -31.4950   -7.3428   -4.4594 H   0  0  0  0  0  0  0  0  0  0  0  0
  -32.8114   -6.1206   -4.4594 H   0  0  0  0  0  0  0  0  0  0  0  0
  -37.5720   -6.5221    4.1862 H   0  0  0  0  0  0  0  0  0  0  0  0
  -39.7762   -7.7150    3.3562 H   0  0  0  0  0  0  0  0  0  0  0  0
  -35.4237   -5.3435    3.5864 H   0  0  0  0  0  0  0  0  0  0  0  0
  -31.4259   -4.5207    2.5304 H   0  0  0  0  0  0  0  0  0  0  0  0
  -32.6454   -4.9287    1.2476 H   0  0  0  0  0  0  0  0  0  0  0  0
  -33.2848   -3.0770    3.5769 H   0  0  0  0  0  0  0  0  0  0  0  0
  -32.5791   -2.4837    2.0353 H   0  0  0  0  0  0  0  0  0  0  0  0
  -34.1798   -3.2989    2.0353 H   0  0  0  0  0  0  0  0  0  0  0  0
  -38.8715  -10.9504    1.6485 H   0  0  0  0  0  0  0  0  0  0  0  0
  -39.7681  -11.1167    0.1009 H   0  0  0  0  0  0  0  0  0  0  0  0
  -38.0854  -10.4880    0.1009 H   0  0  0  0  0  0  0  0  0  0  0  0
  -43.9547   -7.9965    1.2254 H   0  0  0  0  0  0  0  0  0  0  0  0
  -44.2805   -9.1724    3.3706 H   0  0  0  0  0  0  0  0  0  0  0  0
  -42.3466  -10.3893    4.3825 H   0  0  0  0  0  0  0  0  0  0  0  0
  -40.1573  -10.3970    3.1778 H   0  0  0  0  0  0  0  0  0  0  0  0
  -40.1226  -10.3908   -1.5569 H   0  0  0  0  0  0  0  0  0  0  0  0
  -40.5913   -9.3202   -3.7583 H   0  0  0  0  0  0  0  0  0  0  0  0
  -40.4342   -6.8373   -3.9622 H   0  0  0  0  0  0  0  0  0  0  0  0
  -39.9459   -5.5005   -1.9511 H   0  0  0  0  0  0  0  0  0  0  0  0
  2  1  2  0
  3  2  1  0
  4  3  2  0
  5  4  1  0
  6  5  2  0
  6  1  1  0
  7  6  1  0
  8  7  1  0
  9  8  2  0
 10  9  1  0
 11 10  1  0
 12 11  1  0
 12  7  2  0
 13  9  1  0
 14 13  1  0
 15 14  1  0
 16 15  1  0
 17 16  1  0
 18 17  1  0
 19 18  1  0
 19 14  1  0
 20 11  1  0
 21 10  2  0
 22  3  1  0
 23 22  2  0
 24 23  1  0
 24  4  1  0
 25  2  1  0
 26 25  1  6
 27 26  1  0
 28 27  1  0
 29 26  2  0
 30 26  2  0
 31 24  1  0
 31 32  1  6
 33 31  1  0
 34 31  1  0
 35 33  2  0
 36 35  1  0
 37 36  2  0
 38 37  1  0
 39 38  2  0
 39 33  1  0
 40 34  2  0
 41 40  1  0
 42 41  2  0
 43 42  1  0
 44 43  2  0
 44 34  1  0
  1 45  1  0
  5 46  1  0
  8 47  1  0
 12 48  1  0
 13 49  1  0
 14 50  1  1
 15 51  1  0
 15 52  1  0
 16 53  1  0
 16 54  1  0
 17 55  1  0
 18 56  1  0
 18 57  1  0
 19 58  1  0
 19 59  1  0
 20 60  1  0
 20 61  1  0
 20 62  1  0
 22 63  1  0
 23 64  1  0
 25 65  1  0
 27 66  1  0
 27 67  1  0
 28 68  1  0
 28 69  1  0
 28 70  1  0
 32 71  1  0
 32 72  1  0
 32 73  1  0
 36 74  1  0
 37 75  1  0
 38 76  1  0
 39 77  1  0
 40 78  1  0
 41 79  1  0
 42 80  1  0
 43 81  1  0
M  END
$$$$
