@<TRIPOS>MOLECULE
YF6
   81    86     1     0     0
SMALL
bcc


@<TRIPOS>ATOM
      1 C1         -34.7280    -7.0400     0.8390 ca         1 YF6      -0.181000
      2 C2         -35.4370    -6.6890     1.9940 ca         1 YF6       0.180600
      3 C3         -36.7530    -7.1370     2.1720 ca         1 YF6      -0.113800
      4 C4         -37.3410    -7.9200     1.1640 ca         1 YF6      -0.012200
      5 C5         -36.6450    -8.2430     0.0160 ca         1 YF6      -0.144000
      6 C6         -35.3540    -7.7610    -0.1710 ca         1 YF6       0.004200
      7 C7         -34.6170    -8.1650    -1.3930 cc         1 YF6      -0.113200
      8 C8         -34.7470    -9.4650    -1.8520 cc         1 YF6      -0.095000
      9 C9         -34.0360    -9.8950    -2.9730 cd         1 YF6       0.003800
     10 C10        -33.1960    -9.0380    -3.6710 c          1 YF6       0.665700
     11 N1         -33.0930    -7.7440    -3.1530 n          1 YF6      -0.327000
     12 C11        -33.8070    -7.3140    -2.0510 cd         1 YF6      -0.002400
     13 N2         -34.2080   -11.2090    -3.3830 nh         1 YF6      -0.691000
     14 C12        -35.1480   -12.1440    -2.7730 c3         1 YF6       0.186500
     15 C13        -36.5750   -11.8480    -3.1750 c3         1 YF6      -0.094900
     16 C14        -37.5180   -12.8470    -2.5370 c3         1 YF6       0.167300
     17 N3         -37.1510   -14.1980    -2.9680 n3         1 YF6      -0.822200
     18 C15        -35.8070   -14.5220    -2.4900 c3         1 YF6       0.167300
     19 C16        -34.7840   -13.5790    -3.0880 c3         1 YF6      -0.094900
     20 C17        -32.2110    -6.7940    -3.8300 c3         1 YF6       0.061300
     21 O1         -32.5490    -9.3530    -4.6650 o          1 YF6      -0.657500
     22 C18        -37.7120    -7.0270     3.2190 cd         1 YF6      -0.202200
     23 C19        -38.8320    -7.6650     2.7940 cc         1 YF6      -0.073100
     24 N4         -38.6220    -8.2400     1.5630 na         1 YF6      -0.070400
     25 N5         -34.8160    -5.9430     3.0100 nh         1 YF6      -0.779500
     26 S1         -33.2080    -5.9370     3.3660 s6         1 YF6       1.452900
     27 C20        -32.4950    -4.6280     2.2950 c3         1 YF6      -0.320600
     28 C21        -33.1830    -3.2770     2.5000 c3         1 YF6      -0.069100
     29 O2         -32.5490    -7.1600     3.0200 o          1 YF6      -0.651800
     30 O3         -33.1860    -5.4860     4.7120 o          1 YF6      -0.651800
     31 C22        -39.5740    -9.0700     0.8110 c3         1 YF6      -0.005900
     32 C23        -39.0360   -10.5100     0.6540 c3         1 YF6      -0.107100
     33 C24        -40.9020    -9.1480     1.5680 ca         1 YF6       0.397100
     34 C25        -39.8450    -8.4880    -0.5740 ca         1 YF6       0.397100
     35 N6         -41.9190    -8.4870     1.0260 nb         1 YF6      -0.641500
     36 C26        -43.1000    -8.5230     1.6750 ca         1 YF6       0.399200
     37 C27        -43.2990    -9.1840     2.8740 ca         1 YF6      -0.238800
     38 C28        -42.2340    -9.8560     3.4270 ca         1 YF6      -0.095000
     39 C29        -41.0190    -9.8520     2.7650 ca         1 YF6      -0.233800
     40 C30        -40.1060    -9.2960    -1.6620 ca         1 YF6      -0.233800
     41 C31        -40.3450    -8.7040    -2.8810 ca         1 YF6      -0.095000
     42 C32        -40.2730    -7.3320    -2.9930 ca         1 YF6      -0.238800
     43 C33        -39.9950    -6.5960    -1.8650 ca         1 YF6       0.399200
     44 N7         -39.7810    -7.1550    -0.6640 nb         1 YF6      -0.641500
     45 H1         -33.6740    -6.7450     0.7310 ha         1 YF6       0.166000
     46 H2         -37.1110    -8.8810    -0.7500 ha         1 YF6       0.139000
     47 H3         -35.4160   -10.1640    -1.3290 ha         1 YF6       0.145000
     48 H4         -33.7130    -6.2720    -1.7100 h4         1 YF6       0.170000
     49 H5         -33.6350   -11.5470    -4.1690 hn         1 YF6       0.404800
     50 H6         -35.0760   -12.0080    -1.6840 h1         1 YF6       0.050700
     51 H7         -36.8430   -10.8340    -2.8440 hc         1 YF6       0.057450
     52 H8         -36.6620   -11.9220    -4.2690 hc         1 YF6       0.057450
     53 H9         -37.4430   -12.7770    -1.4420 h1         1 YF6       0.026200
     54 H10        -38.5510   -12.6290    -2.8440 h1         1 YF6       0.026200
     55 H11        -37.8240   -14.8750    -2.5810 hn         1 YF6       0.362800
     56 H12        -35.7820   -14.4330    -1.3940 h1         1 YF6       0.026200
     57 H13        -35.5610   -15.5500    -2.7950 h1         1 YF6       0.026200
     58 H14        -33.7930   -13.8030    -2.6660 hc         1 YF6       0.057450
     59 H15        -34.7670   -13.7130    -4.1800 hc         1 YF6       0.057450
     60 H16        -31.6630    -6.2040    -3.0800 h1         1 YF6       0.062033
     61 H17        -31.4950    -7.3430    -4.4590 h1         1 YF6       0.062033
     62 H18        -32.8110    -6.1210    -4.4590 h1         1 YF6       0.062033
     63 H19        -37.5720    -6.5220     4.1860 ha         1 YF6       0.153000
     64 H20        -39.7760    -7.7150     3.3560 h4         1 YF6       0.175000
     65 H21        -35.4240    -5.3430     3.5860 hn         1 YF6       0.462800
     66 H22        -31.4260    -4.5210     2.5300 h1         1 YF6       0.115700
     67 H23        -32.6450    -4.9290     1.2480 h1         1 YF6       0.115700
     68 H24        -33.2850    -3.0770     3.5770 hc         1 YF6       0.048033
     69 H25        -32.5790    -2.4840     2.0350 hc         1 YF6       0.048033
     70 H26        -34.1800    -3.2990     2.0350 hc         1 YF6       0.048033
     71 H27        -38.8710   -10.9500     1.6490 hc         1 YF6       0.055700
     72 H28        -39.7680   -11.1170     0.1010 hc         1 YF6       0.055700
     73 H29        -38.0850   -10.4880     0.1010 hc         1 YF6       0.055700
     74 H30        -43.9550    -7.9970     1.2250 h4         1 YF6       0.025600
     75 H31        -44.2810    -9.1720     3.3710 ha         1 YF6       0.146500
     76 H32        -42.3470   -10.3890     4.3830 ha         1 YF6       0.141000
     77 H33        -40.1570   -10.3970     3.1780 ha         1 YF6       0.148000
     78 H34        -40.1230   -10.3910    -1.5570 ha         1 YF6       0.148000
     79 H35        -40.5910    -9.3200    -3.7580 ha         1 YF6       0.141000
     80 H36        -40.4340    -6.8370    -3.9620 ha         1 YF6       0.146500
     81 H37        -39.9460    -5.5000    -1.9510 h4         1 YF6       0.025600
@<TRIPOS>BOND
     1     2     1 ar  
     2     3     2 ar  
     3     4     3 ar  
     4     5     4 ar  
     5     6     5 ar  
     6     6     1 ar  
     7     7     6 1   
     8     8     7 1   
     9     9     8 2   
    10    10     9 1   
    11    11    10 1   
    12    12    11 1   
    13    12     7 2   
    14    13     9 1   
    15    14    13 1   
    16    15    14 1   
    17    16    15 1   
    18    17    16 1   
    19    18    17 1   
    20    19    18 1   
    21    19    14 1   
    22    20    11 1   
    23    21    10 2   
    24    22     3 1   
    25    23    22 2   
    26    24    23 1   
    27    24     4 1   
    28    25     2 1   
    29    26    25 1   
    30    27    26 1   
    31    28    27 1   
    32    29    26 2   
    33    30    26 2   
    34    31    24 1   
    35    31    32 1   
    36    33    31 1   
    37    34    31 1   
    38    35    33 ar  
    39    36    35 ar  
    40    37    36 ar  
    41    38    37 ar  
    42    39    38 ar  
    43    39    33 ar  
    44    40    34 ar  
    45    41    40 ar  
    46    42    41 ar  
    47    43    42 ar  
    48    44    43 ar  
    49    44    34 ar  
    50     1    45 1   
    51     5    46 1   
    52     8    47 1   
    53    12    48 1   
    54    13    49 1   
    55    14    50 1   
    56    15    51 1   
    57    15    52 1   
    58    16    53 1   
    59    16    54 1   
    60    17    55 1   
    61    18    56 1   
    62    18    57 1   
    63    19    58 1   
    64    19    59 1   
    65    20    60 1   
    66    20    61 1   
    67    20    62 1   
    68    22    63 1   
    69    23    64 1   
    70    25    65 1   
    71    27    66 1   
    72    27    67 1   
    73    28    68 1   
    74    28    69 1   
    75    28    70 1   
    76    32    71 1   
    77    32    72 1   
    78    32    73 1   
    79    36    74 1   
    80    37    75 1   
    81    38    76 1   
    82    39    77 1   
    83    40    78 1   
    84    41    79 1   
    85    42    80 1   
    86    43    81 1   
@<TRIPOS>SUBSTRUCTURE
     1 YF6         1 TEMP              0 ****  ****    0 ROOT
